    27
 geometry
 C                    -1.49036875     0.91779504     0.62575526
 H                    -1.35517051     1.54431633     1.51292529
 C                    -0.46411587     1.31402167    -0.44942554
 C                    -1.14437917    -0.56746137     0.86018260
 C                    -1.62551055    -1.33738954    -0.39309850
 H                    -1.58600594    -2.41938234    -0.24198813
 C                     0.38096331     0.06252566    -0.73012024
 O                    -0.35467582     2.39757548    -0.98130313
 H                    -2.66119302    -1.08921576    -0.64451062
 C                    -0.61836040    -0.87428980    -1.49004303
 H                    -1.10232982    -0.35060878    -2.32030378
 C                     0.41431709    -0.58880107     0.70076364
 H                    -1.51559953    -0.97087499     1.80690537
 C                     1.68152361     0.34488832    -1.45997629
 C                     1.01940378    -2.00158621     0.74088661
 C                     1.16249120     0.26316123     1.74345365
 H                    -2.51163939     1.08626181     0.26866240
 H                     0.59306266    -2.68369179     0.00302729
 H                     0.86497066    -2.44821563     1.72997289
 H                     2.09993623    -1.96256190     0.56719254
 H                     0.86270636     1.31422153     1.75002626
 H                     2.24092852     0.23774163     1.55607273
 H                     0.99852383    -0.13494374     2.75120773
 H                     1.48339672     0.89041857    -2.38744453
 H                     2.20762420    -0.58180593    -1.71112178
 H                     2.35040015     0.96798223    -0.85833958
 H                    -0.07149094    -1.71635740    -1.92538347
