     8
 geometry
 C                     0.03527101     0.78096259     0.00000000
 C                    -0.01758455    -0.74806135     0.00000000
 H                    -0.54080830    -1.12915916     0.88311192
 H                     0.55873303     1.16202469     0.88317065
 H                     0.55873303     1.16202469    -0.88317065
 H                     0.98778699    -1.18221802     0.00000000
 H                    -0.54080830    -1.12915916    -0.88311192
 H                    -0.96996394     1.21547720     0.00000000
